Circuit: * /home/user/projects/broken/circuit.cir
Title: *
Date: Wed Jun 17 22:38:11 2026
Fatal Error: Unknown subcircuit LMR33630 in call from X1
Could not find a part for the model "LM741"
ERROR: parse error on line 12 of circuit file
Simulation stopped.
