Circuit: * /home/user/projects/rc_lowpass_1khz/circuit.cir
Title: *
Date: Wed Jun 17 22:38:11 2026
tran
Singular matrix:  check nodes u1:6 and u1:1
Timestep too small at time 1.235e-05.
vout_max: MAX(v(out))=0.0 FROM 0 TO 0.005
Simulation stopped.
