Circuit: * /home/user/projects/voltage_divider_12_5/circuit.cir
Title: *
Date: Wed Jun 17 22:38:11 2026
op
v(in)=12.0
v(out)=5.0
i(R1)=7e-04
i(R2)=5e-04
vout: FIND(v(out))=5 AT 0
Elapsed time: 0.011 seconds.
